      14
 i =        0, time =        0.000, E =       -28.4249981947
  C        -0.4214770000        1.0494890000       -1.6929530000
  C        -0.7789420000        0.2430020000       -0.4458190000
  C         0.3488320000       -0.6787540000        0.0240270000
  C        -0.0067730000       -1.4961590000        1.2840260000
  H        -1.2456560000        1.6948270000       -2.0004020000
  H         0.4488490000        1.6847820000       -1.5155300000
  H        -0.1835420000        0.3927080000       -2.5323390000
  H        -1.6726540000       -0.3570840000       -0.6417730000
  H        -1.0450940000        0.9251140000        0.3672690000
  H         1.2401600000       -0.0748220000        0.2112080000
  H         0.6147560000       -1.3525420000       -0.7942220000
  H         0.0402140000       -2.5695320000        1.0995970000
  H        -1.0184810000       -1.2729860000        1.6270270000
  H         0.6679600000       -1.2809160000        2.1127330000
      14
 i =        1, time =        1.000, E =       -28.4242022769
  C        -0.4221007857        1.0496093035       -1.6948305085
  C        -0.7838368405        0.2419754712       -0.4501714547
  C         0.3549213577       -0.6834232747        0.0276681490
  C        -0.0012250849       -1.4974533509        1.2856220562
  H        -1.2403245888        1.6875684352       -1.9784715473
  H         0.4481993815        1.6776701036       -1.5006337637
  H        -0.2097814613        0.3751780813       -2.5455483601
  H        -1.6959850711       -0.3407480023       -0.6561164114
  H        -1.0519186417        0.9613932495        0.3596884509
  H         1.2326999058       -0.0446275217        0.2016010421
  H         0.6244048395       -1.3567984604       -0.7754083306
  H         0.0376047018       -2.5636978869        1.0810602950
  H        -1.0350065282       -1.2738889573        1.6434411162
  H         0.6644761949       -1.2494402871        2.1163666496
      14
 i =        2, time =        2.000, E =       -28.4215155579
  C        -0.4225284809        1.0491206246       -1.6966968093
  C        -0.7887551329        0.2411751741       -0.4543231305
  C         0.3606272080       -0.6875348403        0.0314853489
  C         0.0038429772       -1.4981569044        1.2875258750
  H        -1.2422988483        1.6869000052       -1.9600818496
  H         0.4523551842        1.6734110857       -1.4864227959
  H        -0.2345039977        0.3582470149       -2.5597007218
  H        -1.7211765454       -0.3266380061       -0.6698511195
  H        -1.0585250393        0.9954172487        0.3523750519
  H         1.2284316309       -0.0139251345        0.1928833230
  H         0.6364551299       -1.3655015299       -0.7634807059
  H         0.0359988247       -2.5640921366        1.0634711318
  H        -1.0494865036       -1.2753187522        1.6586800067
  H         0.6637450659       -1.2193448994        2.1234543510
      14
 i =        3, time =        3.000, E =       -28.4183227978
  C        -0.4226181099        1.0477518584       -1.6987093321
  C        -0.7939045989        0.2407110015       -0.4580464134
  C         0.3658006865       -0.6906764158        0.0354360452
  C         0.0080522083       -1.4981065837        1.2899981402
  H        -1.2522748104        1.6940279852       -1.9460003363
  H         0.4604211928        1.6708996799       -1.4744213835
  H        -0.2574581221        0.3453294552       -2.5717782947
  H        -1.7451466250       -0.3138403415       -0.6816242243
  H        -1.0634991104        1.0225875548        0.3425433680
  H         1.2253673604        0.0144192008        0.1852403857
  H         0.6510246357       -1.3783593660       -0.7590756878
  H         0.0361100317       -2.5696562917        1.0485744805
  H        -1.0568530533       -1.2782022571        1.6702727608
  H         0.6646662557       -1.1929684037        2.1322765286
      14
 i =        4, time =        4.000, E =       -28.4155816899
  C        -0.4224550687        1.0455841953       -1.7010208556
  C        -0.7994428872        0.2406136326       -0.4612343492
  C         0.3703983898       -0.6926413671        0.0392943801
  C         0.0112660518       -1.4973437375        1.2932099680
  H        -1.2674761574        1.7074186369       -1.9358938901
  H         0.4704225636        1.6684704262       -1.4661854893
  H        -0.2782329184        0.3388832286       -2.5797160346
  H        -1.7650341714       -0.3015999499       -0.6902938798
  H        -1.0659754111        1.0397726679        0.3288740754
  H         1.2216050731        0.0375896835        0.1788355497
  H         0.6673815893       -1.3931072324       -0.7604198444
  H         0.0384576066       -2.5776526341        1.0382312615
  H        -1.0544887598       -1.2829272759        1.6767019352
  H         0.6659060883       -1.1725208556        2.1408032068